
     RDKit          3D

 37 39  0  0  0  0  0  0  0  0999 V2000
    0.9467    1.2928   -0.6725 C   0  0  0  0  0  0  0  0  0  0  0  0
    2.1004    1.9377   -0.8880 N   0  0  0  0  0  0  0  0  0  0  0  0
    3.1304    1.0556   -0.8856 C   0  0  0  0  0  0  0  0  0  0  0  0
    2.5766   -0.1770   -0.6668 C   0  0  0  0  0  0  0  0  0  0  0  0
    1.2596   -0.0373   -0.5335 N   0  0  0  0  0  0  0  0  0  0  0  0
    0.2226   -1.0118   -0.2576 C   0  0  2  0  0  0  0  0  0  0  0  0
    0.0987   -2.2373   -1.0598 C   0  0  2  0  0  0  0  0  0  0  0  0
   -1.2597   -2.0607   -1.7598 C   0  0  2  0  0  0  0  0  0  0  0  0
   -1.8684   -0.9419   -1.1089 C   0  0  2  0  0  0  0  0  0  0  0  0
   -0.9946   -0.3675   -0.1499 O   0  0  0  0  0  0  0  0  0  0  0  0
   -3.2349   -0.9586   -0.4480 C   0  0  2  0  0  0  0  0  0  0  0  0
   -3.5485    0.4420   -0.4598 O   0  0  0  0  0  0  0  0  0  0  0  0
   -3.5188    1.0511    1.0746 P   0  0  1  0  0  5  0  0  0  0  0  0
   -2.2636    2.0548    1.0633 O   0  0  0  0  0  0  0  0  0  0  0  0
   -4.7714    2.0162    1.5409 O   0  0  0  0  0  0  0  0  0  0  0  0
   -3.1133   -0.1112    2.2127 O   0  0  0  0  0  0  0  0  0  0  0  0
   -1.9401   -3.2399   -1.8064 O   0  0  0  0  0  0  0  0  0  0  0  0
    3.4167   -1.2370   -0.5869 N   0  0  0  0  0  0  0  0  0  0  0  0
    4.7294   -1.0382   -0.7103 C   0  0  0  0  0  0  0  0  0  0  0  0
    5.2670    0.1685   -0.9105 N   0  0  0  0  0  0  0  0  0  0  0  0
    4.4946    1.2729   -1.0151 C   0  0  0  0  0  0  0  0  0  0  0  0
    4.9283    2.4025   -1.2139 O   0  0  0  0  0  0  0  0  0  0  0  0
    5.6470   -2.1552   -0.6744 N   0  0  0  0  0  0  0  0  0  0  0  0
   -0.0669    1.6839   -0.5849 H   0  0  0  0  0  0  0  0  0  0  0  0
    0.4394   -1.3663    0.8183 H   0  0  0  0  0  0  0  0  0  0  0  0
   -0.0563   -3.1608   -0.4248 H   0  0  0  0  0  0  0  0  0  0  0  0
    0.8951   -2.4916   -1.7480 H   0  0  0  0  0  0  0  0  0  0  0  0
   -0.9171   -1.8155   -2.8382 H   0  0  0  0  0  0  0  0  0  0  0  0
   -1.9785   -0.0944   -1.8827 H   0  0  0  0  0  0  0  0  0  0  0  0
   -3.2476   -1.2437    0.6022 H   0  0  0  0  0  0  0  0  0  0  0  0
   -3.9688   -1.5422   -1.0274 H   0  0  0  0  0  0  0  0  0  0  0  0
   -4.4827    2.9754    1.7228 H   0  0  0  0  0  0  0  0  0  0  0  0
   -2.6333    0.3079    2.9887 H   0  0  0  0  0  0  0  0  0  0  0  0
   -1.4654   -3.8500   -2.4255 H   0  0  0  0  0  0  0  0  0  0  0  0
    6.3412    0.3198   -0.9699 H   0  0  0  0  0  0  0  0  0  0  0  0
    5.7224   -2.6675   -1.5610 H   0  0  0  0  0  0  0  0  0  0  0  0
    6.1635   -2.3830    0.1489 H   0  0  0  0  0  0  0  0  0  0  0  0
  1  2  2  0
  2  3  1  0
  3  4  2  0
  4  5  1  0
  5  6  1  0
  6  7  1  0
  7  8  1  0
  8  9  1  0
  9 10  1  0
  9 11  1  0
 11 12  1  0
 13 12  1  6
 13 14  2  0
 13 15  1  0
 13 16  1  0
  8 17  1  0
  4 18  1  0
 18 19  2  0
 19 20  1  0
 20 21  1  0
 21 22  2  0
 19 23  1  0
  5  1  1  0
 21  3  1  0
 10  6  1  0
  1 24  1  0
  6 25  1  1
  7 26  1  1
  7 27  1  0
  8 28  1  6
  9 29  1  6
 11 30  1  1
 11 31  1  0
 15 32  1  0
 16 33  1  0
 17 34  1  0
 20 35  1  0
 23 36  1  0
 23 37  1  0
M  END
$$$$
