
     RDKit          3D

 25 26  0  0  0  0  0  0  0  0999 V2000
   -2.1463    0.8562   -1.2376 C   0  0  0  0  0  0  0  0  0  0  0  0
   -2.8459   -0.3184   -1.3203 C   0  0  0  0  0  0  0  0  0  0  0  0
   -2.1786   -1.4520   -0.9493 C   0  0  0  0  0  0  0  0  0  0  0  0
   -0.8317   -1.4211   -0.5008 C   0  0  0  0  0  0  0  0  0  0  0  0
   -0.1481   -0.2633   -0.4203 C   0  0  0  0  0  0  0  0  0  0  0  0
   -0.8452    0.9026   -0.8061 C   0  0  0  0  0  0  0  0  0  0  0  0
    1.2202   -0.1249    0.0690 C   0  0  0  0  0  0  0  0  0  0  0  0
    2.0960   -0.9085    0.7131 C   0  0  0  0  0  0  0  0  0  0  0  0
    3.2857   -0.1844    0.9148 C   0  0  0  0  0  0  0  0  0  0  0  0
    3.0635    1.0422    0.3658 C   0  0  0  0  0  0  0  0  0  0  0  0
    1.8849    1.0366   -0.1017 O   0  0  0  0  0  0  0  0  0  0  0  0
    4.0290    2.1741    0.3255 C   0  0  0  0  0  0  0  0  0  0  0  0
    5.1589    2.0323    0.8287 O   0  0  0  0  0  0  0  0  0  0  0  0
    3.6925    3.3794   -0.2610 O   0  0  0  0  0  0  0  0  0  0  0  0
   -0.2124   -2.7200   -0.1425 C   0  0  2  0  0  0  0  0  0  0  0  0
    0.9121   -3.0300   -0.8344 F   0  0  0  0  0  0  0  0  0  0  0  0
   -1.1301   -3.7363   -0.5864 F   0  0  0  0  0  0  0  0  0  0  0  0
   -0.1980   -2.9004    1.2156 F   0  0  0  0  0  0  0  0  0  0  0  0
   -2.6495    1.7672   -1.5239 H   0  0  0  0  0  0  0  0  0  0  0  0
   -3.8798   -0.3652   -1.6615 H   0  0  0  0  0  0  0  0  0  0  0  0
   -2.6929   -2.4116   -0.9954 H   0  0  0  0  0  0  0  0  0  0  0  0
   -0.2917    1.8347   -0.7391 H   0  0  0  0  0  0  0  0  0  0  0  0
    1.9804   -1.8943    1.0579 H   0  0  0  0  0  0  0  0  0  0  0  0
    4.1722   -0.5429    1.4024 H   0  0  0  0  0  0  0  0  0  0  0  0
    4.4035    3.9252   -0.7724 H   0  0  0  0  0  0  0  0  0  0  0  0
  1  2  2  0
  2  3  1  0
  3  4  2  0
  4  5  1  0
  5  6  2  0
  5  7  1  0
  7  8  2  0
  8  9  1  0
  9 10  2  0
 10 11  1  0
 10 12  1  0
 12 13  2  0
 12 14  1  0
  4 15  1  0
 15 16  1  6
 15 17  1  0
 15 18  1  0
  6  1  1  0
 11  7  1  0
  1 19  1  0
  2 20  1  0
  3 21  1  0
  6 22  1  0
  8 23  1  0
  9 24  1  0
 14 25  1  0
M  END
$$$$
