
     RDKit          3D

 56 59  0  0  0  0  0  0  0  0999 V2000
    1.6406    3.2457   -4.4112 C   0  0  1  0  0  0  0  0  0  0  0  0
    0.9271    2.1458   -3.8415 N   0  0  0  0  0  0  0  0  0  0  0  0
   -0.3677    2.4485   -3.3196 C   0  0  1  0  0  0  0  0  0  0  0  0
    1.0124    0.9317   -4.6006 C   0  0  1  0  0  0  0  0  0  0  0  0
    2.3607    0.3059   -4.6238 C   0  0  1  0  0  0  0  0  0  0  0  0
    2.8403   -0.1071   -3.2921 C   0  0  1  0  0  0  0  0  0  0  0  0
    3.0036    0.9105   -2.2903 N   0  0  0  0  0  0  0  0  0  0  0  0
    3.5882    0.1855   -0.8152 S   0  0  1  0  0  6  0  0  0  0  0  0
    4.8989   -0.4645   -1.1590 O   0  0  0  0  0  0  0  0  0  0  0  0
    3.8400    1.2173    0.2226 O   0  0  0  0  0  0  0  0  0  0  0  0
    2.4238   -0.9725   -0.2223 C   0  0  0  0  0  0  0  0  0  0  0  0
    1.4004   -0.6396    0.6295 C   0  0  0  0  0  0  0  0  0  0  0  0
    0.4856   -1.6017    1.0818 C   0  0  0  0  0  0  0  0  0  0  0  0
    0.5601   -2.9225    0.7014 C   0  0  0  0  0  0  0  0  0  0  0  0
    1.6146   -3.2290   -0.1671 C   0  0  0  0  0  0  0  0  0  0  0  0
    2.5130   -2.2880   -0.6123 C   0  0  0  0  0  0  0  0  0  0  0  0
   -0.3392   -3.9368    1.1180 N   0  0  0  0  0  0  0  0  0  0  0  0
   -1.4967   -3.7727    1.8954 C   0  0  0  0  0  0  0  0  0  0  0  0
   -2.2225   -4.8988    2.1846 N   0  0  0  0  0  0  0  0  0  0  0  0
   -3.3441   -4.8385    2.9171 C   0  0  0  0  0  0  0  0  0  0  0  0
   -3.8227   -3.6446    3.4150 C   0  0  0  0  0  0  0  0  0  0  0  0
   -3.0910   -2.4889    3.1268 C   0  0  0  0  0  0  0  0  0  0  0  0
   -1.9890   -2.6489    2.3912 N   0  0  0  0  0  0  0  0  0  0  0  0
   -3.5324   -1.1903    3.6162 C   0  0  0  0  0  0  0  0  0  0  0  0
   -2.8780    0.0010    3.3890 C   0  0  0  0  0  0  0  0  0  0  0  0
   -3.5583    1.0217    3.9865 N   0  0  0  0  0  0  0  0  0  0  0  0
   -4.6294    0.4639    4.5810 C   0  0  0  0  0  0  0  0  0  0  0  0
   -4.5990   -0.8799    4.3465 N   0  0  0  0  0  0  0  0  0  0  0  0
   -5.5682   -1.6227    4.8455 N   0  0  0  0  0  0  0  0  0  0  0  0
   -6.5846   -1.0949    5.5779 C   0  0  0  0  0  0  0  0  0  0  0  0
   -6.6542    0.2615    5.8394 C   0  0  0  0  0  0  0  0  0  0  0  0
   -5.6376    1.0548    5.3182 C   0  0  0  0  0  0  0  0  0  0  0  0
    2.7182    2.9307   -4.4816 H   0  0  0  0  0  0  0  0  0  0  0  0
    1.2536    3.5910   -5.3873 H   0  0  0  0  0  0  0  0  0  0  0  0
    1.6034    4.0802   -3.6564 H   0  0  0  0  0  0  0  0  0  0  0  0
   -1.1664    2.3240   -4.0703 H   0  0  0  0  0  0  0  0  0  0  0  0
   -0.6451    1.8136   -2.4424 H   0  0  0  0  0  0  0  0  0  0  0  0
   -0.3547    3.4998   -2.9553 H   0  0  0  0  0  0  0  0  0  0  0  0
    0.2980    0.1743   -4.1935 H   0  0  0  0  0  0  0  0  0  0  0  0
    0.7328    1.1780   -5.6552 H   0  0  0  0  0  0  0  0  0  0  0  0
    2.2853   -0.5824   -5.3114 H   0  0  0  0  0  0  0  0  0  0  0  0
    3.1051    1.0012   -5.1379 H   0  0  0  0  0  0  0  0  0  0  0  0
    2.2166   -0.9700   -2.8929 H   0  0  0  0  0  0  0  0  0  0  0  0
    3.8527   -0.5887   -3.4214 H   0  0  0  0  0  0  0  0  0  0  0  0
    2.0710    1.3514   -2.1087 H   0  0  0  0  0  0  0  0  0  0  0  0
    1.3152    0.3803    0.9445 H   0  0  0  0  0  0  0  0  0  0  0  0
   -0.3056   -1.2903    1.7577 H   0  0  0  0  0  0  0  0  0  0  0  0
    1.6933   -4.2748   -0.4832 H   0  0  0  0  0  0  0  0  0  0  0  0
    3.3298   -2.5702   -1.2960 H   0  0  0  0  0  0  0  0  0  0  0  0
   -0.1002   -4.9228    0.8030 H   0  0  0  0  0  0  0  0  0  0  0  0
   -3.9272   -5.7415    3.1497 H   0  0  0  0  0  0  0  0  0  0  0  0
   -4.7185   -3.6356    3.9936 H   0  0  0  0  0  0  0  0  0  0  0  0
   -1.9602    0.0768    2.8151 H   0  0  0  0  0  0  0  0  0  0  0  0
   -7.3746   -1.7044    5.9841 H   0  0  0  0  0  0  0  0  0  0  0  0
   -7.4242    0.7344    6.4053 H   0  0  0  0  0  0  0  0  0  0  0  0
   -5.6318    2.1432    5.4886 H   0  0  0  0  0  0  0  0  0  0  0  0
  1  2  1  0
  2  3  1  0
  2  4  1  0
  4  5  1  0
  5  6  1  0
  6  7  1  0
  8  7  1  6
  8  9  2  0
  8 10  2  0
  8 11  1  0
 11 12  2  0
 12 13  1  0
 13 14  2  0
 14 15  1  0
 15 16  2  0
 14 17  1  0
 17 18  1  0
 18 19  2  0
 19 20  1  0
 20 21  2  0
 21 22  1  0
 22 23  2  0
 22 24  1  0
 24 25  2  0
 25 26  1  0
 26 27  2  0
 27 28  1  0
 28 29  1  0
 29 30  2  0
 30 31  1  0
 31 32  2  0
 16 11  1  0
 23 18  1  0
 28 24  1  0
 32 27  1  0
  1 33  1  6
  1 34  1  0
  1 35  1  0
  3 36  1  6
  3 37  1  0
  3 38  1  0
  4 39  1  1
  4 40  1  0
  5 41  1  6
  5 42  1  0
  6 43  1  1
  6 44  1  0
  7 45  1  0
 12 46  1  0
 13 47  1  0
 15 48  1  0
 16 49  1  0
 17 50  1  0
 20 51  1  0
 21 52  1  0
 25 53  1  0
 30 54  1  0
 31 55  1  0
 32 56  1  0
M  END
$$$$
