
     RDKit          3D

 74 76  0  0  0  0  0  0  0  0999 V2000
    2.8921    0.2361    3.1238 C   0  0  1  0  0  0  0  0  0  0  0  0
    2.3626    0.5027    1.7019 C   0  0  2  0  0  0  0  0  0  0  0  0
    3.1050    1.8218    1.3359 C   0  0  1  0  0  0  0  0  0  0  0  0
    4.5533    1.5100    1.3661 C   0  0  2  0  0  0  0  0  0  0  0  0
    5.5392    2.5667    1.0915 C   0  0  1  0  0  0  0  0  0  0  0  0
    5.5523    3.2612   -0.2098 C   0  0  2  0  0  0  0  0  0  0  0  0
    4.2886    4.0197   -0.4981 C   0  0  1  0  0  0  0  0  0  0  0  0
    5.7929    2.3039   -1.3758 C   0  0  1  0  0  0  0  0  0  0  0  0
    6.6542    4.1612   -0.2750 O   0  0  0  0  0  0  0  0  0  0  0  0
    0.8969    0.7027    1.7388 C   0  0  2  0  0  0  0  0  0  0  0  0
    0.2251   -0.5361    2.3676 C   0  0  2  0  0  0  0  0  0  0  0  0
   -1.1726   -0.4908    1.6983 C   0  0  2  0  0  0  0  0  0  0  0  0
   -0.6870   -0.3036    0.2861 C   0  0  2  0  0  0  0  0  0  0  0  0
    0.2058    0.9380    0.4349 C   0  0  1  0  0  0  0  0  0  0  0  0
   -0.5887    2.2063    0.5990 C   0  0  1  0  0  0  0  0  0  0  0  0
   -1.8532    2.3027   -0.1631 C   0  0  1  0  0  0  0  0  0  0  0  0
   -2.0666    1.2326   -1.1789 C   0  0  2  0  0  0  0  0  0  0  0  0
   -1.7022   -0.1073   -0.7213 C   0  0  0  0  0  0  0  0  0  0  0  0
   -2.3186   -1.1789   -1.2504 C   0  0  0  0  0  0  0  0  0  0  0  0
   -1.9797   -2.5200   -0.8264 C   0  0  0  0  0  0  0  0  0  0  0  0
   -2.5700   -3.5936   -1.3213 C   0  0  0  0  0  0  0  0  0  0  0  0
   -3.6204   -3.4352   -2.3440 C   0  0  1  0  0  0  0  0  0  0  0  0
   -4.5348   -4.6116   -2.3538 C   0  0  2  0  0  0  0  0  0  0  0  0
   -3.7779   -5.8915   -2.3485 C   0  0  2  0  0  0  0  0  0  0  0  0
   -3.1379   -6.0324   -0.9548 C   0  0  2  0  0  0  0  0  0  0  0  0
   -2.1445   -4.9205   -0.8559 C   0  0  0  0  0  0  0  0  0  0  0  0
   -0.9342   -5.1132   -0.3869 C   0  0  0  0  0  0  0  0  0  0  0  0
   -2.4255   -7.2298   -0.9201 O   0  0  0  0  0  0  0  0  0  0  0  0
   -5.3395   -4.5669   -3.5046 O   0  0  0  0  0  0  0  0  0  0  0  0
    1.0572    0.9412   -0.7908 C   0  0  1  0  0  0  0  0  0  0  0  0
    2.0474   -0.1245    3.7907 H   0  0  0  0  0  0  0  0  0  0  0  0
    3.7236   -0.4806    3.1332 H   0  0  0  0  0  0  0  0  0  0  0  0
    3.2288    1.1620    3.6260 H   0  0  0  0  0  0  0  0  0  0  0  0
    2.7015   -0.3186    1.0794 H   0  0  0  0  0  0  0  0  0  0  0  0
    2.6813    2.2749    0.4673 H   0  0  0  0  0  0  0  0  0  0  0  0
    2.8986    2.5519    2.1884 H   0  0  0  0  0  0  0  0  0  0  0  0
    4.6797    0.6235    0.6484 H   0  0  0  0  0  0  0  0  0  0  0  0
    4.7628    1.0187    2.3738 H   0  0  0  0  0  0  0  0  0  0  0  0
    5.5405    3.3013    1.9496 H   0  0  0  0  0  0  0  0  0  0  0  0
    6.5660    2.0640    1.1899 H   0  0  0  0  0  0  0  0  0  0  0  0
    4.5795    4.9901   -1.0441 H   0  0  0  0  0  0  0  0  0  0  0  0
    3.6156    3.5208   -1.2097 H   0  0  0  0  0  0  0  0  0  0  0  0
    3.7269    4.3110    0.4102 H   0  0  0  0  0  0  0  0  0  0  0  0
    6.6482    1.6505   -1.1694 H   0  0  0  0  0  0  0  0  0  0  0  0
    4.8700    1.7613   -1.6432 H   0  0  0  0  0  0  0  0  0  0  0  0
    6.0666    2.9402   -2.2429 H   0  0  0  0  0  0  0  0  0  0  0  0
    6.7840    4.3609   -1.2174 H   0  0  0  0  0  0  0  0  0  0  0  0
    0.7002    1.5211    2.4935 H   0  0  0  0  0  0  0  0  0  0  0  0
    0.1310   -0.4684    3.4458 H   0  0  0  0  0  0  0  0  0  0  0  0
    0.7066   -1.4353    1.9579 H   0  0  0  0  0  0  0  0  0  0  0  0
   -1.6976    0.4336    1.9916 H   0  0  0  0  0  0  0  0  0  0  0  0
   -1.7373   -1.4055    1.8700 H   0  0  0  0  0  0  0  0  0  0  0  0
    0.0473   -1.1091    0.0077 H   0  0  0  0  0  0  0  0  0  0  0  0
   -0.7281    2.4467    1.6871 H   0  0  0  0  0  0  0  0  0  0  0  0
    0.0859    3.0370    0.2329 H   0  0  0  0  0  0  0  0  0  0  0  0
   -2.6982    2.2056    0.5838 H   0  0  0  0  0  0  0  0  0  0  0  0
   -2.0259    3.3242   -0.6072 H   0  0  0  0  0  0  0  0  0  0  0  0
   -1.5458    1.5503   -2.1161 H   0  0  0  0  0  0  0  0  0  0  0  0
   -3.1580    1.2331   -1.4532 H   0  0  0  0  0  0  0  0  0  0  0  0
   -3.0782   -1.0168   -2.0187 H   0  0  0  0  0  0  0  0  0  0  0  0
   -1.2149   -2.6631   -0.0714 H   0  0  0  0  0  0  0  0  0  0  0  0
   -4.2482   -2.5135   -2.1177 H   0  0  0  0  0  0  0  0  0  0  0  0
   -3.1450   -3.3058   -3.3388 H   0  0  0  0  0  0  0  0  0  0  0  0
   -5.1633   -4.5631   -1.4398 H   0  0  0  0  0  0  0  0  0  0  0  0
   -2.9296   -5.8453   -3.0635 H   0  0  0  0  0  0  0  0  0  0  0  0
   -4.4248   -6.7660   -2.4960 H   0  0  0  0  0  0  0  0  0  0  0  0
   -3.8940   -5.9784   -0.1721 H   0  0  0  0  0  0  0  0  0  0  0  0
   -0.6840   -6.1354   -0.0548 H   0  0  0  0  0  0  0  0  0  0  0  0
   -0.1851   -4.3426   -0.3146 H   0  0  0  0  0  0  0  0  0  0  0  0
   -2.3375   -7.4964    0.0340 H   0  0  0  0  0  0  0  0  0  0  0  0
   -6.2785   -4.4962   -3.2210 H   0  0  0  0  0  0  0  0  0  0  0  0
    0.4797    0.3768   -1.6006 H   0  0  0  0  0  0  0  0  0  0  0  0
    1.2127    1.9319   -1.2629 H   0  0  0  0  0  0  0  0  0  0  0  0
    1.9787    0.3805   -0.6838 H   0  0  0  0  0  0  0  0  0  0  0  0
  1  2  1  0
  2  3  1  0
  3  4  1  0
  4  5  1  0
  5  6  1  0
  6  7  1  0
  6  8  1  0
  6  9  1  1
  2 10  1  0
 10 11  1  0
 11 12  1  0
 12 13  1  0
 14 13  1  6
 14 15  1  0
 15 16  1  0
 16 17  1  0
 17 18  1  0
 18 19  2  3
 19 20  1  0
 20 21  2  3
 21 22  1  0
 22 23  1  0
 23 24  1  0
 24 25  1  0
 25 26  1  0
 26 27  2  3
 25 28  1  0
 23 29  1  0
 14 30  1  0
 14 10  1  0
 18 13  1  0
 26 21  1  0
  1 31  1  1
  1 32  1  0
  1 33  1  0
  2 34  1  6
  3 35  1  6
  3 36  1  0
  4 37  1  6
  4 38  1  0
  5 39  1  1
  5 40  1  0
  7 41  1  6
  7 42  1  0
  7 43  1  0
  8 44  1  1
  8 45  1  0
  8 46  1  0
  9 47  1  0
 10 48  1  1
 11 49  1  1
 11 50  1  0
 12 51  1  1
 12 52  1  0
 13 53  1  6
 15 54  1  1
 15 55  1  0
 16 56  1  1
 16 57  1  0
 17 58  1  6
 17 59  1  0
 19 60  1  0
 20 61  1  0
 22 62  1  1
 22 63  1  0
 23 64  1  1
 24 65  1  6
 24 66  1  0
 25 67  1  1
 27 68  1  0
 27 69  1  0
 28 70  1  0
 29 71  1  0
 30 72  1  6
 30 73  1  0
 30 74  1  0
M  END
$$$$
